REMARK SMILES CC(=O)Oc1ccccc1C(=O)O
REMARK SMILES IDX 5 1 6 2 7 3 8 4 9 5 10 6 4 7 2 8 1 9 3 10 11 11 12 12 13 13
REMARK H PARENT 13 14
REMARK Flexibility Score: inf
ROOT
ATOM      1  C   UNL A   1       4.591  -0.923   1.008  1.00  0.00     0.145 A 
ATOM      2  C   UNL A   1       5.342   0.248   1.267  1.00  0.00     0.048 A 
ATOM      3  C   UNL A   1       6.734   0.217   1.298  1.00  0.00     0.004 A 
ATOM      4  C   UNL A   1       7.408  -0.973   1.069  1.00  0.00     0.001 A 
ATOM      5  C   UNL A   1       6.696  -2.139   0.802  1.00  0.00     0.019 A 
ATOM      6  C   UNL A   1       5.282  -2.148   0.760  1.00  0.00     0.102 A 
ENDROOT
BRANCH   1   7
ATOM      7  O   UNL A   1       3.232  -0.899   0.971  1.00  0.00    -0.426 OA
BRANCH   7   8
ATOM      8  C   UNL A   1       2.351   0.025   1.444  1.00  0.00     0.308 C 
ATOM      9  C   UNL A   1       0.905  -0.118   1.092  1.00  0.00     0.139 C 
ATOM     10  O   UNL A   1       2.700   0.932   2.184  1.00  0.00    -0.252 OA
ENDBRANCH   7   8
ENDBRANCH   1   7
BRANCH   6  11
ATOM     11  C   UNL A   1       4.611  -3.468   0.460  1.00  0.00     0.339 C 
ATOM     12  O   UNL A   1       5.310  -4.453   0.279  1.00  0.00    -0.246 OA
BRANCH  11  13
ATOM     13  O   UNL A   1       3.271  -3.646   0.371  1.00  0.00    -0.478 OA
ATOM     14  H   UNL A   1       2.591  -2.977   0.477  1.00  0.00     0.297 HD
ENDBRANCH  11  13
ENDBRANCH   6  11
TORSDOF 4
