MODEL 1
REMARK VINA RESULT:    -6.578      0.000      0.000
REMARK INTER + INTRA:          -8.593
REMARK INTER:                  -7.924
REMARK INTRA:                  -0.669
REMARK UNBOUND:                -0.669
REMARK SMILES CC(=O)Oc1ccccc1C(=O)O
REMARK SMILES IDX 5 1 6 2 7 3 8 4 9 5 10 6 4 7 2 8 1 9 3 10 11 11 12 12 13 13
REMARK H PARENT 13 14
REMARK Flexibility Score: inf
ROOT
ATOM      1  C   UNL A   1     -42.361 -55.762   7.972  1.00  0.00     0.145 A 
ATOM      2  C   UNL A   1     -43.379 -56.220   8.843  1.00  0.00     0.048 A 
ATOM      3  C   UNL A   1     -44.186 -55.324   9.539  1.00  0.00     0.004 A 
ATOM      4  C   UNL A   1     -44.004 -53.959   9.383  1.00  0.00     0.001 A 
ATOM      5  C   UNL A   1     -43.017 -53.479   8.526  1.00  0.00     0.019 A 
ATOM      6  C   UNL A   1     -42.178 -54.356   7.800  1.00  0.00     0.102 A 
ENDROOT
BRANCH   1   7
ATOM      7  O   UNL A   1     -41.572 -56.631   7.286  1.00  0.00    -0.426 OA
BRANCH   7   8
ATOM      8  C   UNL A   1     -41.790 -57.284   6.111  1.00  0.00     0.308 C 
ATOM      9  C   UNL A   1     -41.500 -58.749   6.040  1.00  0.00     0.139 C 
ATOM     10  O   UNL A   1     -42.261 -56.719   5.135  1.00  0.00    -0.252 OA
ENDBRANCH   7   8
ENDBRANCH   1   7
BRANCH   6  11
ATOM     11  C   UNL A   1     -41.142 -53.728   6.898  1.00  0.00     0.339 C 
ATOM     12  O   UNL A   1     -40.368 -52.912   7.374  1.00  0.00    -0.246 OA
BRANCH  11  13
ATOM     13  O   UNL A   1     -41.004 -54.003   5.579  1.00  0.00    -0.478 OA
ATOM     14  H   UNL A   1     -41.616 -53.777   4.875  1.00  0.00     0.297 HD
ENDBRANCH  11  13
ENDBRANCH   6  11
TORSDOF 4
ENDMDL
MODEL 2
REMARK VINA RESULT:    -6.431      1.725      3.194
REMARK INTER + INTRA:          -8.417
REMARK INTER:                  -7.838
REMARK INTRA:                  -0.578
REMARK UNBOUND:                -0.669
REMARK SMILES CC(=O)Oc1ccccc1C(=O)O
REMARK SMILES IDX 5 1 6 2 7 3 8 4 9 5 10 6 4 7 2 8 1 9 3 10 11 11 12 12 13 13
REMARK H PARENT 13 14
REMARK Flexibility Score: inf
ROOT
ATOM      1  C   UNL A   1     -41.636 -55.054   6.684  1.00  0.00     0.145 A 
ATOM      2  C   UNL A   1     -40.858 -53.888   6.490  1.00  0.00     0.048 A 
ATOM      3  C   UNL A   1     -40.759 -52.917   7.482  1.00  0.00     0.004 A 
ATOM      4  C   UNL A   1     -41.425 -53.083   8.687  1.00  0.00     0.001 A 
ATOM      5  C   UNL A   1     -42.190 -54.224   8.910  1.00  0.00     0.019 A 
ATOM      6  C   UNL A   1     -42.314 -55.235   7.928  1.00  0.00     0.102 A 
ENDROOT
BRANCH   1   7
ATOM      7  O   UNL A   1     -41.733 -56.010   5.721  1.00  0.00    -0.426 OA
BRANCH   7   8
ATOM      8  C   UNL A   1     -40.871 -57.005   5.374  1.00  0.00     0.308 C 
ATOM      9  C   UNL A   1     -39.580 -56.637   4.715  1.00  0.00     0.139 C 
ATOM     10  O   UNL A   1     -41.100 -58.177   5.630  1.00  0.00    -0.252 OA
ENDBRANCH   7   8
ENDBRANCH   1   7
BRANCH   6  11
ATOM     11  C   UNL A   1     -43.168 -56.432   8.276  1.00  0.00     0.339 C 
ATOM     12  O   UNL A   1     -43.879 -56.376   9.267  1.00  0.00    -0.246 OA
BRANCH  11  13
ATOM     13  O   UNL A   1     -43.204 -57.583   7.563  1.00  0.00    -0.478 OA
ATOM     14  H   UNL A   1     -43.906 -57.879   6.979  1.00  0.00     0.297 HD
ENDBRANCH  11  13
ENDBRANCH   6  11
TORSDOF 4
ENDMDL
MODEL 3
REMARK VINA RESULT:    -6.069     27.980     29.080
REMARK INTER + INTRA:          -7.980
REMARK INTER:                  -7.466
REMARK INTRA:                  -0.514
REMARK UNBOUND:                -0.669
REMARK SMILES CC(=O)Oc1ccccc1C(=O)O
REMARK SMILES IDX 5 1 6 2 7 3 8 4 9 5 10 6 4 7 2 8 1 9 3 10 11 11 12 12 13 13
REMARK H PARENT 13 14
REMARK Flexibility Score: inf
ROOT
ATOM      1  C   UNL A   1     -14.123 -56.118   0.535  1.00  0.00     0.145 A 
ATOM      2  C   UNL A   1     -14.533 -55.492  -0.666  1.00  0.00     0.048 A 
ATOM      3  C   UNL A   1     -15.073 -56.233  -1.715  1.00  0.00     0.004 A 
ATOM      4  C   UNL A   1     -15.221 -57.606  -1.591  1.00  0.00     0.001 A 
ATOM      5  C   UNL A   1     -14.836 -58.248  -0.418  1.00  0.00     0.019 A 
ATOM      6  C   UNL A   1     -14.285 -57.530   0.670  1.00  0.00     0.102 A 
ENDROOT
BRANCH   1   7
ATOM      7  O   UNL A   1     -13.600 -55.400   1.564  1.00  0.00    -0.426 OA
BRANCH   7   8
ATOM      8  C   UNL A   1     -13.945 -54.178   2.055  1.00  0.00     0.308 C 
ATOM      9  C   UNL A   1     -14.985 -54.103   3.126  1.00  0.00     0.139 C 
ATOM     10  O   UNL A   1     -13.395 -53.153   1.682  1.00  0.00    -0.252 OA
ENDBRANCH   7   8
ENDBRANCH   1   7
BRANCH   6  11
ATOM     11  C   UNL A   1     -13.903 -58.326   1.896  1.00  0.00     0.339 C 
ATOM     12  O   UNL A   1     -13.318 -59.388   1.747  1.00  0.00    -0.246 OA
BRANCH  11  13
ATOM     13  O   UNL A   1     -14.167 -57.948   3.170  1.00  0.00    -0.478 OA
ATOM     14  H   UNL A   1     -13.558 -57.954   3.912  1.00  0.00     0.297 HD
ENDBRANCH  11  13
ENDBRANCH   6  11
TORSDOF 4
ENDMDL
MODEL 4
REMARK VINA RESULT:    -6.063      2.063      5.042
REMARK INTER + INTRA:          -7.973
REMARK INTER:                  -7.467
REMARK INTRA:                  -0.506
REMARK UNBOUND:                -0.669
REMARK SMILES CC(=O)Oc1ccccc1C(=O)O
REMARK SMILES IDX 5 1 6 2 7 3 8 4 9 5 10 6 4 7 2 8 1 9 3 10 11 11 12 12 13 13
REMARK H PARENT 13 14
REMARK Flexibility Score: inf
ROOT
ATOM      1  C   UNL A   1     -40.911 -56.076   5.812  1.00  0.00     0.145 A 
ATOM      2  C   UNL A   1     -39.697 -56.024   5.088  1.00  0.00     0.048 A 
ATOM      3  C   UNL A   1     -38.926 -57.168   4.893  1.00  0.00     0.004 A 
ATOM      4  C   UNL A   1     -39.346 -58.385   5.409  1.00  0.00     0.001 A 
ATOM      5  C   UNL A   1     -40.541 -58.468   6.117  1.00  0.00     0.019 A 
ATOM      6  C   UNL A   1     -41.353 -57.330   6.334  1.00  0.00     0.102 A 
ENDROOT
BRANCH   1   7
ATOM      7  O   UNL A   1     -41.671 -54.965   6.001  1.00  0.00    -0.426 OA
BRANCH   7   8
ATOM      8  C   UNL A   1     -41.700 -54.079   7.034  1.00  0.00     0.308 C 
ATOM      9  C   UNL A   1     -40.463 -53.297   7.341  1.00  0.00     0.139 C 
ATOM     10  O   UNL A   1     -42.716 -53.870   7.680  1.00  0.00    -0.252 OA
ENDBRANCH   7   8
ENDBRANCH   1   7
BRANCH   6  11
ATOM     11  C   UNL A   1     -42.630 -57.534   7.115  1.00  0.00     0.339 C 
ATOM     12  O   UNL A   1     -43.307 -58.524   6.883  1.00  0.00    -0.246 OA
BRANCH  11  13
ATOM     13  O   UNL A   1     -43.093 -56.688   8.066  1.00  0.00    -0.478 OA
ATOM     14  H   UNL A   1     -44.006 -56.438   8.223  1.00  0.00     0.297 HD
ENDBRANCH  11  13
ENDBRANCH   6  11
TORSDOF 4
ENDMDL
MODEL 5
REMARK VINA RESULT:    -5.952     28.799     29.394
REMARK INTER + INTRA:          -7.839
REMARK INTER:                  -7.202
REMARK INTRA:                  -0.637
REMARK UNBOUND:                -0.669
REMARK SMILES CC(=O)Oc1ccccc1C(=O)O
REMARK SMILES IDX 5 1 6 2 7 3 8 4 9 5 10 6 4 7 2 8 1 9 3 10 11 11 12 12 13 13
REMARK H PARENT 13 14
REMARK Flexibility Score: inf
ROOT
ATOM      1  C   UNL A   1     -14.133 -57.144   0.858  1.00  0.00     0.145 A 
ATOM      2  C   UNL A   1     -13.621 -57.903   1.937  1.00  0.00     0.048 A 
ATOM      3  C   UNL A   1     -13.409 -59.274   1.815  1.00  0.00     0.004 A 
ATOM      4  C   UNL A   1     -13.697 -59.918   0.621  1.00  0.00     0.001 A 
ATOM      5  C   UNL A   1     -14.192 -59.195  -0.461  1.00  0.00     0.019 A 
ATOM      6  C   UNL A   1     -14.419 -57.801  -0.377  1.00  0.00     0.102 A 
ENDROOT
BRANCH   1   7
ATOM      7  O   UNL A   1     -14.337 -55.804   0.969  1.00  0.00    -0.426 OA
BRANCH   7   8
ATOM      8  C   UNL A   1     -13.446 -54.778   1.051  1.00  0.00     0.308 C 
ATOM      9  C   UNL A   1     -13.423 -53.946   2.293  1.00  0.00     0.139 C 
ATOM     10  O   UNL A   1     -12.636 -54.552   0.165  1.00  0.00    -0.252 OA
ENDBRANCH   7   8
ENDBRANCH   1   7
BRANCH   6  11
ATOM     11  C   UNL A   1     -14.957 -57.116  -1.611  1.00  0.00     0.339 C 
ATOM     12  O   UNL A   1     -15.502 -57.795  -2.468  1.00  0.00    -0.246 OA
BRANCH  11  13
ATOM     13  O   UNL A   1     -14.878 -55.784  -1.847  1.00  0.00    -0.478 OA
ATOM     14  H   UNL A   1     -14.452 -55.124  -1.295  1.00  0.00     0.297 HD
ENDBRANCH  11  13
ENDBRANCH   6  11
TORSDOF 4
ENDMDL
MODEL 6
REMARK VINA RESULT:    -5.917     29.090     30.066
REMARK INTER + INTRA:          -7.797
REMARK INTER:                  -7.238
REMARK INTRA:                  -0.559
REMARK UNBOUND:                -0.669
REMARK SMILES CC(=O)Oc1ccccc1C(=O)O
REMARK SMILES IDX 5 1 6 2 7 3 8 4 9 5 10 6 4 7 2 8 1 9 3 10 11 11 12 12 13 13
REMARK H PARENT 13 14
REMARK Flexibility Score: inf
ROOT
ATOM      1  C   UNL A   1     -13.525 -60.569  -1.322  1.00  0.00     0.145 A 
ATOM      2  C   UNL A   1     -13.416 -61.948  -1.624  1.00  0.00     0.048 A 
ATOM      3  C   UNL A   1     -13.484 -62.911  -0.620  1.00  0.00     0.004 A 
ATOM      4  C   UNL A   1     -13.666 -62.527   0.700  1.00  0.00     0.001 A 
ATOM      5  C   UNL A   1     -13.787 -61.179   1.026  1.00  0.00     0.019 A 
ATOM      6  C   UNL A   1     -13.725 -60.171   0.035  1.00  0.00     0.102 A 
ENDROOT
BRANCH   1   7
ATOM      7  O   UNL A   1     -13.465 -59.624  -2.298  1.00  0.00    -0.426 OA
BRANCH   7   8
ATOM      8  C   UNL A   1     -14.413 -59.201  -3.179  1.00  0.00     0.308 C 
ATOM      9  C   UNL A   1     -15.034 -57.857  -2.973  1.00  0.00     0.139 C 
ATOM     10  O   UNL A   1     -14.731 -59.864  -4.154  1.00  0.00    -0.252 OA
ENDBRANCH   7   8
ENDBRANCH   1   7
BRANCH   6  11
ATOM     11  C   UNL A   1     -13.869 -58.741   0.498  1.00  0.00     0.339 C 
ATOM     12  O   UNL A   1     -14.733 -58.475   1.320  1.00  0.00    -0.246 OA
BRANCH  11  13
ATOM     13  O   UNL A   1     -13.104 -57.711   0.063  1.00  0.00    -0.478 OA
ATOM     14  H   UNL A   1     -12.482 -57.722  -0.668  1.00  0.00     0.297 HD
ENDBRANCH  11  13
ENDBRANCH   6  11
TORSDOF 4
ENDMDL
MODEL 7
REMARK VINA RESULT:    -5.870     28.560     29.482
REMARK INTER + INTRA:          -7.741
REMARK INTER:                  -7.038
REMARK INTRA:                  -0.702
REMARK UNBOUND:                -0.669
REMARK SMILES CC(=O)Oc1ccccc1C(=O)O
REMARK SMILES IDX 5 1 6 2 7 3 8 4 9 5 10 6 4 7 2 8 1 9 3 10 11 11 12 12 13 13
REMARK H PARENT 13 14
REMARK Flexibility Score: inf
ROOT
ATOM      1  C   UNL A   1     -13.909 -59.220  -1.104  1.00  0.00     0.145 A 
ATOM      2  C   UNL A   1     -14.071 -59.482  -2.485  1.00  0.00     0.048 A 
ATOM      3  C   UNL A   1     -14.763 -58.597  -3.308  1.00  0.00     0.004 A 
ATOM      4  C   UNL A   1     -15.304 -57.434  -2.780  1.00  0.00     0.001 A 
ATOM      5  C   UNL A   1     -15.152 -57.145  -1.427  1.00  0.00     0.019 A 
ATOM      6  C   UNL A   1     -14.454 -58.018  -0.559  1.00  0.00     0.102 A 
ENDROOT
BRANCH   1   7
ATOM      7  O   UNL A   1     -13.230 -60.077  -0.295  1.00  0.00    -0.426 OA
BRANCH   7   8
ATOM      8  C   UNL A   1     -13.632 -61.231   0.304  1.00  0.00     0.308 C 
ATOM      9  C   UNL A   1     -13.249 -62.534  -0.321  1.00  0.00     0.139 C 
ATOM     10  O   UNL A   1     -14.249 -61.231   1.359  1.00  0.00    -0.252 OA
ENDBRANCH   7   8
ENDBRANCH   1   7
BRANCH   6  11
ATOM     11  C   UNL A   1     -14.348 -57.606   0.891  1.00  0.00     0.339 C 
ATOM     12  O   UNL A   1     -13.858 -56.519   1.157  1.00  0.00    -0.246 OA
BRANCH  11  13
ATOM     13  O   UNL A   1     -14.758 -58.363   1.937  1.00  0.00    -0.478 OA
ATOM     14  H   UNL A   1     -14.245 -59.023   2.408  1.00  0.00     0.297 HD
ENDBRANCH  11  13
ENDBRANCH   6  11
TORSDOF 4
ENDMDL
MODEL 8
REMARK VINA RESULT:    -5.863     27.586     28.505
REMARK INTER + INTRA:          -7.732
REMARK INTER:                  -7.196
REMARK INTRA:                  -0.536
REMARK UNBOUND:                -0.669
REMARK SMILES CC(=O)Oc1ccccc1C(=O)O
REMARK SMILES IDX 5 1 6 2 7 3 8 4 9 5 10 6 4 7 2 8 1 9 3 10 11 11 12 12 13 13
REMARK H PARENT 13 14
REMARK Flexibility Score: inf
ROOT
ATOM      1  C   UNL A   1     -14.725 -55.617   0.125  1.00  0.00     0.145 A 
ATOM      2  C   UNL A   1     -15.075 -54.394   0.743  1.00  0.00     0.048 A 
ATOM      3  C   UNL A   1     -15.243 -54.308   2.123  1.00  0.00     0.004 A 
ATOM      4  C   UNL A   1     -15.064 -55.431   2.916  1.00  0.00     0.001 A 
ATOM      5  C   UNL A   1     -14.710 -56.646   2.337  1.00  0.00     0.019 A 
ATOM      6  C   UNL A   1     -14.528 -56.773   0.940  1.00  0.00     0.102 A 
ENDROOT
BRANCH   1   7
ATOM      7  O   UNL A   1     -14.553 -55.707  -1.221  1.00  0.00    -0.426 OA
BRANCH   7   8
ATOM      8  C   UNL A   1     -15.465 -55.869  -2.220  1.00  0.00     0.308 C 
ATOM      9  C   UNL A   1     -15.343 -57.060  -3.115  1.00  0.00     0.139 C 
ATOM     10  O   UNL A   1     -16.402 -55.100  -2.371  1.00  0.00    -0.252 OA
ENDBRANCH   7   8
ENDBRANCH   1   7
BRANCH   6  11
ATOM     11  C   UNL A   1     -14.143 -58.138   0.417  1.00  0.00     0.339 C 
ATOM     12  O   UNL A   1     -14.655 -59.125   0.923  1.00  0.00    -0.246 OA
BRANCH  11  13
ATOM     13  O   UNL A   1     -13.256 -58.356  -0.583  1.00  0.00    -0.478 OA
ATOM     14  H   UNL A   1     -12.303 -58.443  -0.502  1.00  0.00     0.297 HD
ENDBRANCH  11  13
ENDBRANCH   6  11
TORSDOF 4
ENDMDL
MODEL 9
REMARK VINA RESULT:    -5.853     28.792     29.337
REMARK INTER + INTRA:          -7.720
REMARK INTER:                  -7.637
REMARK INTRA:                  -0.084
REMARK UNBOUND:                -0.669
REMARK SMILES CC(=O)Oc1ccccc1C(=O)O
REMARK SMILES IDX 5 1 6 2 7 3 8 4 9 5 10 6 4 7 2 8 1 9 3 10 11 11 12 12 13 13
REMARK H PARENT 13 14
REMARK Flexibility Score: inf
ROOT
ATOM      1  C   UNL A   1     -14.506 -57.684  -0.348  1.00  0.00     0.145 A 
ATOM      2  C   UNL A   1     -14.503 -59.085  -0.149  1.00  0.00     0.048 A 
ATOM      3  C   UNL A   1     -13.720 -59.669   0.843  1.00  0.00     0.004 A 
ATOM      4  C   UNL A   1     -12.929 -58.876   1.660  1.00  0.00     0.001 A 
ATOM      5  C   UNL A   1     -12.919 -57.494   1.495  1.00  0.00     0.019 A 
ATOM      6  C   UNL A   1     -13.701 -56.863   0.500  1.00  0.00     0.102 A 
ENDROOT
BRANCH   1   7
ATOM      7  O   UNL A   1     -15.272 -57.106  -1.311  1.00  0.00    -0.426 OA
BRANCH   7   8
ATOM      8  C   UNL A   1     -15.220 -57.219  -2.667  1.00  0.00     0.308 C 
ATOM      9  C   UNL A   1     -15.377 -55.984  -3.495  1.00  0.00     0.139 C 
ATOM     10  O   UNL A   1     -15.000 -58.286  -3.220  1.00  0.00    -0.252 OA
ENDBRANCH   7   8
ENDBRANCH   1   7
BRANCH   6  11
ATOM     11  C   UNL A   1     -13.616 -55.357   0.409  1.00  0.00     0.339 C 
ATOM     12  O   UNL A   1     -14.625 -54.700   0.610  1.00  0.00    -0.246 OA
BRANCH  11  13
ATOM     13  O   UNL A   1     -12.488 -54.668   0.113  1.00  0.00    -0.478 OA
ATOM     14  H   UNL A   1     -12.270 -54.247  -0.721  1.00  0.00     0.297 HD
ENDBRANCH  11  13
ENDBRANCH   6  11
TORSDOF 4
ENDMDL
